Circuit: * C:\Users\bens1\Documents\Other\Projects\Smart-Watch\Simulations\Draft1.asc

Limiting rise time of source v2 to 1
Limiting fall time of source v2 to 1
Direct Newton iteration for .op point succeeded.

Date: Wed Feb 14 01:52:41 2024
Total elapsed time: 0.049 seconds.

tnom = 27
temp = 27
method = modified trap
totiter = 2229
traniter = 2226
tranpoints = 1088
accept = 1075
rejected = 13
matrix size = 6
fillins = 0
solver = Normal
Matrix Compiler1: 146 bytes object code size  0.1/0.1/[0.1]
Matrix Compiler2: off  [0.1]/0.1/0.1

