Circuit: * C:\Users\bens1\Documents\Other\Projects\Smart-Watch\Simulations\Draft4.asc

WARNING: Less than two connections to node NC_01.  This node is used by V2.
Direct Newton iteration for .op point succeeded.

Date: Fri Mar 29 23:08:08 2024
Total elapsed time: 0.020 seconds.

tnom = 27
temp = 27
method = trap
totiter = 3
traniter = 0
tranpoints = 0
accept = 0
rejected = 0
matrix size = 6
fillins = 0
solver = Normal
Matrix Compiler1: 128 bytes object code size
Matrix Compiler2: 326 bytes object code size
