Circuit: * C:\Users\bens1\Documents\Other\Projects\Smart-Watch\Simulations\Draft4.asc

Direct Newton iteration for .op point succeeded.

Date: Thu Jul 11 23:18:55 2024
Total elapsed time: 0.018 seconds.

tnom = 27
temp = 27
method = modified trap
totiter = 2257
traniter = 2254
tranpoints = 1128
accept = 1116
rejected = 12
matrix size = 5
fillins = 0
solver = Normal
Matrix Compiler1: 114 bytes object code size  0.0/0.0/[0.0]
Matrix Compiler2: off  [0.0]/0.0/0.0

