Circuit: * C:\Users\bens1\Documents\Other\Projects\Smart-Watch\Simulations\Draft3.asc

Direct Newton iteration for .op point succeeded.

Date: Sun Mar 03 17:34:54 2024
Total elapsed time: 0.015 seconds.

tnom = 27
temp = 27
method = trap
totiter = 3
traniter = 0
tranpoints = 0
accept = 0
rejected = 0
matrix size = 3
fillins = 0
solver = Normal
Matrix Compiler1: 50 bytes object code size
Matrix Compiler2: 175 bytes object code size
