Circuit: * C:\Users\bens1\Documents\Other\Projects\Smart-Watch\Simulations\Draft2.asc

Limiting rise time of source v2 to 1
Limiting fall time of source v2 to 1
Direct Newton iteration for .op point succeeded.

Date: Thu Feb 15 01:39:44 2024
Total elapsed time: 0.050 seconds.

tnom = 27
temp = 27
method = modified trap
totiter = 2250
traniter = 2244
tranpoints = 1097
accept = 1080
rejected = 17
matrix size = 7
fillins = 0
solver = Normal
Matrix Compiler1: 178 bytes object code size  0.1/0.0/[0.0]
Matrix Compiler2:      35 opcodes  0.1/[0.0]/0.1

