Circuit: * C:\Users\bens1\Documents\Other\Projects\Smart-Watch\Simulations\RFID.asc

Early termination of direct N-R iteration.
Direct Newton iteration failed to find .op point.  (Use ".option noopiter" to skip.)
Starting Gmin stepping
Gmin = 10
Gmin = 1.07374
Gmin = 0.115292
Gmin = 0.0123794
Gmin = 0.00132923
vernier = 0.5
vernier = 0.666667
Gmin = 0.000497691
vernier = 0.888888
vernier = 1
Gmin = 7.02013e-005
Gmin = 7.53781e-006
Gmin = 8.09366e-007
vernier = 0.5
vernier = 0.25
vernier = 0.125
vernier = 0.0625
vernier = 0.03125
Gmin = 6.27872e-007
vernier = 0.015625
vernier = 0.0078125
vernier = 0.00390625
vernier = 0.00520833
Gmin = 6.23191e-007
vernier = 0.00694444
vernier = 0.00347222
Gmin = 6.16203e-007
vernier = 0.00173611
vernier = 0.00231481
Gmin = 6.13802e-007
vernier = 0.00308642
vernier = 0.00411522
Gmin = 6.09281e-007
vernier = 0.00548696
Gmin = 6.02016e-007
vernier = 0.00731595
vernier = 0.00975459
Gmin = 5.90307e-007
vernier = 0.0130061
vernier = 0.0173415
Gmin = 5.72225e-007
vernier = 0.00867074
vernier = 0.011561
Gmin = 5.61992e-007
vernier = 0.0154146
vernier = 0.00770732
vernier = 0.0102764
Gmin = 5.51987e-007
vernier = 0.0137019
vernier = 0.00685095
Gmin = 5.4216e-007
vernier = 0.0091346
vernier = 0.0121795
vernier = 0.00608973
Gmin = 5.32963e-007
vernier = 0.00811964
Gmin = 5.23589e-007
vernier = 0.0108262
vernier = 0.0144349
Gmin = 5.08597e-007
vernier = 0.0192465
vernier = 0.025662
Gmin = 4.8573e-007
vernier = 0.0342161
Gmin = 4.5083e-007
vernier = 0.0456214
vernier = 0.0608285
Gmin = 3.99115e-007
vernier = 0.0811047
vernier = 0.10814
Gmin = 3.29263e-007
vernier = 0.144186
Gmin = 2.4139e-007
vernier = 0.192248
vernier = 0.25633
vernier = 0.128165
vernier = 0.0640826
Gmin = 1.758e-007
vernier = 0.0320413
vernier = 0.0160207
vernier = 0.00801033
vernier = 0.00400516
vernier = 0.00200258
vernier = 0.00100129
vernier = 0.000500645
Gmin = 0
Gmin stepping failed

Starting source stepping with srcstepmethod=0
Source Step = 3.0303%
vernier = 0.25
Source Step = 0.0177557%
Source Step = 0.0473485%
Source Step = 0.0769413%
Source Step = 0.106534%
Source Step = 0.136127%
Source Step = 0.16572%
vernier = 0.00146484
Source Step = 0.208629%
Source Step = 0.253018%
Source Step = 0.297408%
Source Step = 0.341797%
Source Step = 0.386186%
vernier = 0.00219727
Source Step = 0.448331%
Source Step = 0.514915%
Source Step = 0.581499%
Source Step = 0.648082%
Source Step = 0.714666%
vernier = 0.0032959
Source Step = 0.804554%
Source Step = 0.90443%
Source Step = 1.00431%
Source Step = 1.10418%
Source Step = 1.20406%
vernier = 0.00494385
Source Step = 1.3339%
Source Step = 1.48371%
Source Step = 1.63352%
Source Step = 1.78334%
Source Step = 1.93315%
vernier = 0.00741577
Source Step = 2.12042%
Source Step = 2.34514%
Source Step = 2.56986%
Source Step = 2.79458%
Source Step = 3.0193%
vernier = 0.0111237
Source Step = 3.28896%
Source Step = 3.62604%
Source Step = 3.96312%
Source Step = 4.3002%
Source Step = 4.63728%
vernier = 0.0166855
Source Step = 5.02493%
Source Step = 5.53055%
Source Step = 6.03617%
Source Step = 6.54179%
Source Step = 7.04741%
vernier = 0.0250282
Source Step = 7.60359%
Source Step = 8.36202%
Source Step = 9.12046%
Source Step = 9.87889%
Source Step = 10.6373%
vernier = 0.0375423
Source Step = 11.4337%
Source Step = 12.5713%
Source Step = 13.709%
Source Step = 14.8466%
Source Step = 15.9843%
Source Step = 17.1219%
vernier = 0.0563135
Source Step = 18.8284%
Source Step = 20.5348%
Source Step = 22.2413%
Source Step = 23.9478%
Source Step = 25.6543%
vernier = 0.0844703
Source Step = 28.1286%
Source Step = 30.6883%
Source Step = 33.248%
Source Step = 35.8078%
Source Step = 38.3675%
vernier = 0.126705
Source Step = 41.951%
Source Step = 45.7906%
Source Step = 49.6302%
Source Step = 53.4697%
Source Step = 57.3093%
vernier = 0.190058
Source Step = 62.4927%
Source Step = 68.252%
Source Step = 74.0114%
Source Step = 79.7707%
Source Step = 85.53%
vernier = 0.285087
Source Step = 93.0172%
Source Step = 96.6921%
Source Step = 96.7259%
Source Step = 96.7596%
Source Step = 96.7934%
Source Step = 96.8271%
Source Step = 96.8608%
Source Step = 96.8946%
Source Step = 96.9283%
Source Step = 96.9621%
Source Step = 96.9958%
Source Step = 97.0296%
Source Step = 97.0633%
Source Step = 97.0971%
Source Step = 97.1308%
Source Step = 97.1646%
Source Step = 97.1983%
Source Step = 97.2321%
Source Step = 97.2658%
Source Step = 97.2995%
Source Step = 97.3333%
Source Step = 97.367%
Source Step = 97.4008%
Source Step = 97.4345%
Source Step = 97.4683%
Source Step = 97.502%
Source Step = 97.5358%
Source Step = 97.5695%
Source Step = 97.6033%
Source Step = 97.637%
Source Step = 97.6708%
Source Step = 97.7045%
Source Step = 97.7382%
Source Step = 97.772%
Source Step = 97.8057%
Source Step = 97.8395%
Source Step = 97.8732%
Source Step = 97.907%
Source Step = 97.9407%
Source Step = 97.9745%
Source Step = 98.0082%
Source Step = 98.042%
Source Step = 98.0757%
Source Step = 98.1095%
Source Step = 98.1432%
Source Step = 98.1769%
Source Step = 98.2107%
Source Step = 98.2444%
Source Step = 98.2782%
Source Step = 98.3119%
Source Step = 98.3457%
Source Step = 98.3794%
Source Step = 98.4132%
Source Step = 98.4469%
Source Step = 98.4807%
Source Step = 98.5144%
Source Step = 98.5482%
Source Step = 98.5819%
Source Step = 98.6156%
Source Step = 98.6494%
Source Step = 98.6831%
Source Step = 98.7169%
Source Step = 98.7506%
Source Step = 98.7844%
Source Step = 98.8181%
Source Step = 98.8519%
Source Step = 98.8856%
Source Step = 98.9194%
Source Step = 98.9531%
Source Step = 98.9869%
Source Step = 99.0206%
Source Step = 99.0543%
Source Step = 99.0881%
Source Step = 99.1218%
Source Step = 99.1556%
Source Step = 99.1893%
Source Step = 99.2231%
Source Step = 99.2568%
Source Step = 99.2906%
Source Step = 99.3243%
Source Step = 99.3581%
Source Step = 99.3918%
Source Step = 99.4256%
Source Step = 99.4593%
Source Step = 99.493%
Source Step = 99.5268%
Source Step = 99.5605%
Source Step = 99.5943%
Source Step = 99.628%
Source Step = 99.6618%
Source Step = 99.6955%
Source Step = 99.7293%
Source Step = 99.763%
Source Step = 99.7968%
Source Step = 99.8305%
Source Step = 99.8643%
Source Step = 99.898%
Source Step = 99.9317%
Source Step = 99.9655%
Source Step = 99.9992%
Source Step = 100%
Source Step = 100%
Source Step = 100%
Source Step = 100%
Source Step = 100%
Source Step = 100%
Source Step = 100%
Source Step = 100%
Source Step = 100%
Source Step = 100%
Source Step = 100%
Source Step = 100%
Source Step = 100%
Source Step = 100%
Source Step = 100%
Source Step = 100%
Source Step = 100%
Source Step = 100%
Source Step = 100%
Source Step = 100%
Source Step = 100%
Source Step = 100%
Source Step = 100%
Source Step = 100%
Source Step = 100%
Source stepping aborted.
Starting source stepping with srcstepmethod=1
Source Step = 3.0303%
Source Step = 33.3333%
Source Step = 63.6364%
Source Step = 93.9394%
Source Step = 96.9815%
Source Step = 97.0111%
Source Step = 97.0407%
Source Step = 97.0703%
Source Step = 97.0999%
Source Step = 97.1295%
Source Step = 97.1591%
Source Step = 97.1887%
Source Step = 97.2183%
Source Step = 97.2479%
Source Step = 97.2775%
Source Step = 97.3071%
Source Step = 97.3366%
Source Step = 97.3662%
Source Step = 97.3958%
Source Step = 97.4254%
Source Step = 97.455%
Source Step = 97.4846%
Source Step = 97.5142%
Source Step = 97.5438%
Source Step = 97.5734%
Source Step = 97.603%
Source Step = 97.6326%
Source Step = 97.6622%
Source Step = 97.6918%
Source Step = 97.7214%
Source Step = 97.7509%
Source Step = 97.7805%
Source stepping aborted.
Pseudo Transient succeeded in finding the operating point at 12.3636 s.

Date: Tue Mar 05 21:09:08 2024
Total elapsed time: 8.842 seconds.

tnom = 27
temp = 27
method = modified trap
totiter = 153248
traniter = 11614
tranpoints = 5082
accept = 3733
rejected = 1457
matrix size = 64
fillins = 210
solver = Normal
Thread vector: 11.1/5.1[7] 5.5/2.6[7] 1.8/1.0[7] 0.2/0.4[1]  2592/500
Matrix Compiler1: 23.09 KB object code size  3.3/1.8/[1.3]
Matrix Compiler2: 10.07 KB object code size  0.5/0.5/[0.4]

