Circuit: * C:\Users\bens1\Documents\Other\Projects\Smart-Watch\Simulations\RFID.asc

Early termination of direct N-R iteration.
Direct Newton iteration failed to find .op point.  (Use ".option noopiter" to skip.)
Starting Gmin stepping
Gmin = 10
Gmin = 1.07374
Gmin = 0.115292
Gmin = 0.0123794
Gmin = 0.00132923
vernier = 0.5
vernier = 0.666667
Gmin = 0.000497691
vernier = 0.888888
vernier = 1
Gmin = 7.02013e-005
Gmin = 7.53781e-006
Gmin = 8.09366e-007
vernier = 0.5
vernier = 0.25
vernier = 0.125
vernier = 0.0625
vernier = 0.03125
Gmin = 6.27872e-007
vernier = 0.015625
vernier = 0.0078125
vernier = 0.00390625
vernier = 0.00520833
Gmin = 6.23191e-007
vernier = 0.00694444
vernier = 0.00347222
Gmin = 6.16203e-007
vernier = 0.00173611
vernier = 0.00231481
Gmin = 6.13802e-007
vernier = 0.00308642
vernier = 0.00411522
Gmin = 6.09281e-007
vernier = 0.00548696
Gmin = 6.02016e-007
vernier = 0.00731595
vernier = 0.00975459
Gmin = 5.90307e-007
vernier = 0.0130061
vernier = 0.0173415
Gmin = 5.72225e-007
vernier = 0.00867074
vernier = 0.011561
Gmin = 5.61992e-007
vernier = 0.0154146
vernier = 0.00770732
vernier = 0.0102764
Gmin = 5.51987e-007
vernier = 0.0137019
vernier = 0.00685095
Gmin = 5.4216e-007
vernier = 0.0091346
vernier = 0.0121795
vernier = 0.00608973
Gmin = 5.32963e-007
vernier = 0.00811964
Gmin = 5.23589e-007
vernier = 0.0108262
vernier = 0.0144349
Gmin = 5.08597e-007
vernier = 0.0192465
vernier = 0.025662
Gmin = 4.8573e-007
vernier = 0.0342161
Gmin = 4.5083e-007
vernier = 0.0456214
vernier = 0.0608285
Gmin = 3.99115e-007
vernier = 0.0811047
vernier = 0.10814
Gmin = 3.29263e-007
vernier = 0.144186
Gmin = 2.4139e-007
vernier = 0.192248
vernier = 0.25633
vernier = 0.128165
vernier = 0.0640826
Gmin = 1.758e-007
vernier = 0.0320413
vernier = 0.0160207
vernier = 0.00801033
vernier = 0.00400516
vernier = 0.00200258
vernier = 0.00100129
vernier = 0.000500645
Gmin = 0
Gmin stepping failed

Starting source stepping with srcstepmethod=0
Source Step = 3.0303%
vernier = 0.25
Source Step = 0.0177557%
Source Step = 0.0473485%
Source Step = 0.0769413%
Source Step = 0.106534%
Source Step = 0.136127%
Source Step = 0.16572%
vernier = 0.00146484
Source Step = 0.208629%
Source Step = 0.253018%
Source Step = 0.297408%
Source Step = 0.341797%
Source Step = 0.386186%
vernier = 0.00219727
Source Step = 0.448331%
Source Step = 0.514915%
Source Step = 0.581499%
Source Step = 0.648082%
Source Step = 0.714666%
vernier = 0.0032959
Source Step = 0.804554%
Source Step = 0.90443%
Source Step = 1.00431%
Source Step = 1.10418%
Source Step = 1.20406%
vernier = 0.00494385
Source Step = 1.3339%
Source Step = 1.48371%
Source Step = 1.63352%
Source Step = 1.78334%
Source Step = 1.93315%
vernier = 0.00741577
Source Step = 2.12042%
Source Step = 2.34514%
Source Step = 2.56986%
Source Step = 2.79458%
Source Step = 3.0193%
vernier = 0.0111237
Source Step = 3.28896%
Source Step = 3.62604%
Source Step = 3.96312%
Source Step = 4.3002%
Source Step = 4.63728%
vernier = 0.0166855
Source Step = 5.02493%
Source Step = 5.53055%
Source Step = 6.03617%
Source Step = 6.54179%
Source Step = 7.04741%
vernier = 0.0250282
Source Step = 7.60359%
Source Step = 8.36202%
Source Step = 9.12046%
Source Step = 9.87889%
Source Step = 10.6373%
vernier = 0.0375423
Source Step = 11.4337%
Source Step = 12.5713%
Source Step = 13.709%
Source Step = 14.8466%
Source Step = 15.9843%
Source Step = 17.1219%
vernier = 0.0563135
Source Step = 18.8284%
Source Step = 20.5348%
Source Step = 22.2413%
Source Step = 23.9478%
Source Step = 25.6543%
vernier = 0.0844703
Source Step = 28.1286%
Source Step = 30.6883%
Source Step = 33.248%
Source Step = 35.8078%
Source Step = 38.3675%
vernier = 0.126705
Source Step = 41.951%
Source Step = 45.7906%
Source Step = 49.6302%
Source Step = 53.4697%
Source Step = 57.3093%
vernier = 0.190058
Source Step = 62.4927%
Source Step = 68.252%
Source Step = 74.0114%
Source Step = 79.7707%
Source Step = 85.53%
vernier = 0.285087
Source Step = 93.0172%
Source Step = 96.6921%
Source Step = 96.7259%
Source Step = 96.7596%
Source Step = 96.7934%
Source Step = 96.8271%
Source Step = 96.8608%
Source Step = 96.8946%
Source Step = 96.9283%
Source Step = 96.9621%
Source Step = 96.9958%
Source Step = 97.0296%
Source Step = 97.0633%
Source Step = 97.0971%
Source Step = 97.1308%
Source Step = 97.1646%
Source Step = 97.1983%
Source Step = 97.2321%
Source Step = 97.2658%
Source Step = 97.2995%
Source Step = 97.3333%
Source Step = 97.367%
Source Step = 97.4008%
Source Step = 97.4345%
Source Step = 97.4683%
Source Step = 97.502%
Source Step = 97.5358%
Source Step = 97.5695%
Source Step = 97.6033%
Source Step = 97.637%
Source Step = 97.6708%
Source Step = 97.7045%
Source Step = 97.7382%
Source Step = 97.772%
Source Step = 97.8057%
Source Step = 97.8395%
Source Step = 97.8732%
Source Step = 97.907%
Source Step = 97.9407%
Source Step = 97.9745%
Source Step = 98.0082%
Source Step = 98.042%
Source Step = 98.0757%
Source Step = 98.1095%
Source stepping aborted.
Starting source stepping with srcstepmethod=1
Source Step = 3.0303%
Source Step = 9.84848%
Source Step = 17.4242%
Source Step = 25%
Source Step = 32.5758%
Source Step = 40.1515%
vernier = 0.375
Source Step = 50.7576%
Source Step = 62.1212%
Source Step = 73.4848%
Source Step = 84.8485%
Source Step = 91.6844%
vernier = 0.00146484
Source Step = 91.7111%
Source Step = 91.7554%
Source Step = 91.7998%
Source Step = 91.8442%
Source Step = 91.8886%
Source Step = 91.933%
Source Step = 91.9774%
Source Step = 92.0218%
Source Step = 92.0662%
Source Step = 92.1106%
Source Step = 92.1549%
Source Step = 92.1993%
Source Step = 92.2437%
Source Step = 92.2881%
Source Step = 92.3325%
Source Step = 92.3769%
Source Step = 92.4213%
Source Step = 92.4657%
Source Step = 92.5101%
Source Step = 92.5545%
Source Step = 92.5988%
Source Step = 92.6432%
Source Step = 92.6876%
Source Step = 92.732%
Source Step = 92.7764%
Source Step = 92.8208%
Source Step = 92.8652%
Source Step = 92.9096%
Source Step = 92.954%
Source Step = 92.9983%
Source Step = 93.0427%
Source Step = 93.0871%
Source stepping aborted.
Pseudo Transient succeeded in finding the operating point at 2.45669 s.

Date: Sat Jan 06 03:48:15 2024
Total elapsed time: 7.727 seconds.

tnom = 27
temp = 27
method = modified trap
totiter = 110876
traniter = 19490
tranpoints = 8640
accept = 6264
rejected = 2486
matrix size = 64
fillins = 210
solver = Normal
Thread vector: 20.3/9.7[7] 6.5/3.4[7] 4.6/2.4[6] 0.3/0.9[1]  2592/500
Matrix Compiler1: 23.09 KB object code size  4.9/2.5/[1.9]
Matrix Compiler2: 10.07 KB object code size  1.3/1.5/[0.7]

